   126
 Generated by Multiwfn
C       5.16783892     -4.51784277      0.72218128
C       3.73521473     -4.64247595      0.69471827
C       2.95112793     -3.46219195      0.77027384
C       3.74807294     -2.25715376      1.23595969
C       5.05927789     -2.09111753      0.48450289
C       5.83038942     -3.29947061      0.46178319
C       2.39974491     -0.73622637     -0.85070702
C       3.40527801      0.33336649     -0.39910704
C       4.79684751      0.31709949     -0.25133211
C       5.58846082     -0.89445300     -0.01809021
C       2.72510565      1.56118521     -0.27757061
C       3.36952077      2.81315591     -0.34407061
C       4.77801553      2.82736092     -0.39808451
C       5.49093430      1.59392472     -0.33987439
C       3.12863210     -5.89578022      0.47500259
C       1.76100695     -5.98158270      0.27872109
C       0.94905295     -4.79642816      0.27918379
C       1.56828597     -3.49969345      0.49416091
C      -0.44754018     -4.93158985      0.06262398
C      -1.27947558     -3.79140580      0.15128185
C      -0.66928340     -2.53830878      0.37917128
C       0.70990373     -2.30934840      0.41979182
C       1.24486761     -0.92789337      0.20074755
C      -1.60886305     -1.45313332      0.72935675
C      -0.34946717      0.80513344      1.51235219
C       0.74924877      0.30423552      0.57190057
C       1.34735637      1.50487853     -0.00626763
C      -1.42825653      1.52782935      0.64575787
C      -0.87854445      2.54155572     -0.07976588
C       0.57676531      2.65636105     -0.12415765
C       1.18941605      3.91161766     -0.36186202
C       2.59648083      4.00520265     -0.36495271
C       1.12647563     -7.26389280      0.03070987
C      -0.20906748     -7.37372491     -0.20704591
C      -1.05247517     -6.21287802     -0.19128139
C      -2.42359637     -6.28298553     -0.40144627
C      -3.26736330     -5.14224601     -0.34139573
C      -2.70230937     -3.86441273     -0.01702325
C      -3.56251320     -2.69571002      0.04524440
C      -2.95595782     -1.40470839      0.12733904
C      -3.45423268     -0.04536294     -0.05192933
C      -2.89562357      1.22026168      0.50228510
C      -3.78379547      2.29962025      0.63657249
C      -3.40080760      3.62171128      1.27920632
C      -1.50859394      3.62419822     -0.91530315
C      -1.01533358      4.97145914     -0.38918526
C       0.38347145      5.09956415     -0.35072003
C      -4.65833721     -5.25273844     -0.65449519
C      -5.53095931     -4.15940455     -0.54997862
C      -4.99211573     -2.93401296     -0.02608460
C      -5.88005540     -1.92208458      0.30481658
C      -4.67928567      0.12694713     -0.76090399
C      -5.66197401      1.01565258     -0.31709084
C      -5.15350091      2.21164186      0.27336277
C      -5.99107217      3.38506759      0.25735447
C      -5.40103583      4.66493716      0.31928468
C      -4.01315071      4.80726228      0.53339521
C      -3.28348678      5.93996916      0.15400895
C      -1.86505847      6.04933617     -0.04641561
C      -1.20830536      7.34306602      0.05538277
C       0.15377831      7.50353250     -0.04234141
C       1.01863304      6.37500590     -0.21165852
C       2.42454934      6.44707180     -0.25493047
C       3.25341018      5.28274470     -0.37715361
C       4.66659378      5.28620425     -0.45768988
C       5.43493614      4.10416511     -0.47713263
C       7.02260588     -0.81958303     -0.26311168
C       7.77611978     -2.03771809     -0.26218354
C       7.20281999     -3.23359902      0.05406579
C       6.91288443      1.64195638     -0.42186855
C       7.64061126      0.42776407     -0.43069589
C       6.86259767      4.09089376     -0.54068879
C       7.56362349      2.91255268     -0.51980194
C      -6.92706124     -4.15086933     -0.90071163
C      -7.69138406     -3.00884554     -0.82232748
C      -7.15212206     -1.79586583     -0.26939786
C      -7.74126235     -0.49339785     -0.42672899
C      -7.10834566      0.76584176     -0.40151060
C      -7.91126270      1.95946170     -0.33053398
C      -7.37729368      3.19349756     -0.06547966
O      -1.74875370     -1.57929176      2.18049954
O      -3.95390934      3.58043251      2.61344046
O       2.93690638     -1.93818873     -1.35649696
O      -4.99957571     -0.70665075     -1.76934096
O       1.97327027     -8.33644188      0.04411535
O      -2.04747563      8.40080078      0.28105959
O       8.99669380      0.54907328     -0.59874844
O      -5.07760872     -6.48516996     -1.06709632
O       2.97360082      7.69919086     -0.17899630
O       5.84784385     -5.69738798      0.79705165
H       3.16899398     -1.34439867      1.29848772
H       4.05156185     -2.48943906      2.27243009
H       1.88608835     -0.25203433     -1.69819280
H       3.73780757     -6.78884545      0.43505195
H      -1.13890150     -0.54049825      0.45081277
H      -0.75081376      0.06190038      2.19080906
H       0.10623527      1.58211670      2.14068096
H      -0.65797279     -8.34708966     -0.39802566
H      -2.87706389     -7.24450412     -0.61702485
H      -2.32485648      3.73387559      1.36831714
H      -1.11855595      3.53482906     -1.94186343
H      -2.58876417      3.56774385     -0.98664177
H      -5.50308612     -1.09505276      0.88284484
H      -5.99791729      5.52609998      0.02204460
H      -3.85684697      6.84522044     -0.04025810
H       0.59133214      8.49367604      0.05423511
H       5.21294957      6.22639140     -0.52249673
H       8.81660818     -2.03179262     -0.57943763
H       7.79950423     -4.13791876     -0.04590302
H       7.39647101      5.03642886     -0.60208782
H       8.64627005      2.92466119     -0.57488966
H      -7.39056846     -5.04530844     -1.31516398
H      -8.70717496     -3.01549558     -1.21082800
H      -8.81160713     -0.46717785     -0.63461746
H      -8.98568469      1.86093820     -0.46933964
H      -8.02577760      4.06665967     -0.06367679
H      -2.60699348     -1.18577872      2.41521907
H      -3.85837898      4.47568211      2.97886195
H       3.65190043     -1.68994122     -1.96380694
H      -4.25237352     -1.31356054     -1.91598410
H       1.45838599     -9.13883217     -0.13498207
H      -1.51770179      9.21280310      0.31846761
H       9.43393324     -0.24675888     -0.26208727
H      -6.04516128     -6.49263342     -1.11988660
H       3.91588428      7.62049665      0.03421622
H       6.79561579     -5.51833457      0.88834735
