    630

      C          19.67327700   14.56715520    4.86775421
      C          18.40525930   15.18381132    4.58944342
      C          17.26822395   14.35587199    4.40045298
      C          17.63881314   12.90134110    4.26999554
      C          18.60976429   12.43680483    5.32869784
      C          19.76513528   13.27233673    5.42180686
      C          15.41689091   12.32530436    5.94961767
      C          16.03020839   10.92310482    5.86669075
      C          17.32228334   10.43166348    6.12321292
      C          18.53830942   11.23324429    6.04433343
      C          14.98565214    9.99545363    5.66255808
      C          15.08932972    8.62574244    6.00325055
      C          16.33780707    8.14283370    6.44698044
      C          17.44905948    9.03413370    6.50104710
      C          18.28144117   16.58622056    4.62984444
      C          17.03145428   17.18367341    4.51640921
      C          15.85896292   16.36871005    4.33770018
      C          15.97488545   14.91951344    4.30358139
      C          14.60131732   17.01922701    4.24670057
      C          13.43446546   16.24883140    3.99181158
      C          13.55682733   14.84569808    3.92171981
      C          14.73652061   14.13373199    4.21307374
      C          14.64960245   12.71461504    4.63730783
      C          12.35313545   14.12954232    3.44929456
      C          12.76389519   11.46513510    3.14706855
      C          13.80732505   11.67984706    4.24564558
      C          13.80859533   10.46139654    5.04022649
      C          11.37342303   11.32943114    3.84121886
      C          11.37462946   10.28352547    4.72392039
      C          12.65287371    9.67265422    5.07325146
      C          12.70412393    8.34404440    5.56129965
      C          13.94801084    7.78131588    5.92208239
      C          16.90174551   18.62773592    4.63969269
      C          15.67103474   19.23403745    4.58246913
      C          14.48780742   18.45027736    4.37995463
      C          13.21245830   19.02347439    4.31616987
      C          12.03596126   18.26295126    4.08297472
      C          12.13616638   16.84458097    3.86013395
      C          10.93243356   16.05752087    3.67360279
      C          11.00914620   14.63904000    3.77742122
      C          10.00506709   13.60550275    3.95588749
      C          10.13221068   12.15097065    3.66450252
      C           8.93867452   11.42791128    3.44612999
      C           8.90442081    9.98033245    3.01460839
      C          10.25586456    9.63469309    5.48208400
      C          10.29507645    8.13701827    5.20677775
      C          11.53011382    7.51672421    5.47979797
      C          10.73765952   18.87349521    4.18629531
      C           9.56514091   18.15672415    3.88072006
      C           9.70106921   16.78810468    3.45914761
      C           8.58951205   16.13164430    2.95380539
      C           8.68846786   13.99053673    4.37593953
      C           7.54992005   13.42874548    3.76442481
      C           7.66281381   12.04312803    3.44115221
      C           6.45732616   11.25149578    3.36320574
      C           6.52317168    9.84515041    3.56560164
      C           7.77234384    9.20225714    3.67622085
      C           7.96281814    7.93699143    4.26411597
      C           9.17450781    7.37573903    4.78547470
      C           9.29146000    5.93477408    4.97608449
      C          10.47657803    5.32563931    5.35562502
      C          11.66183265    6.08983489    5.57438024
      C          12.93684681    5.53104164    5.88569441
      C          14.07490630    6.37200106    6.17149659
      C          15.32031532    5.90504224    6.64144078
      C          16.43375463    6.75722730    6.81723353
      C          19.75586315   10.72637613    6.66622246
      C          20.91075493   11.56762693    6.71458384
      C          20.91595824   12.80827309    6.13312287
      C          18.67720207    8.52996399    7.02607009
      C          19.79908003    9.40164540    7.15476177
      C          17.68518809    6.30841480    7.33388215
      C          18.75403047    7.16547469    7.44659246
      C           8.23650406   18.69948390    3.89716558
      C           7.13387623   17.91716563    3.63379119
      C           7.27397547   16.54090665    3.24479311
      C           6.21123832   15.58312925    3.32722549
      C           6.31639599   14.17318788    3.50239631
      C           5.15094544   13.34546480    3.34383022
      C           5.21670332   11.96415314    3.33225770
      O          12.43445368   14.03577053    1.96872451
      O           8.62091675   10.00770755    1.57538629
      O          16.19972954   13.36807453    6.46844723
      O           8.46514600   14.98113237    5.23988136
      O          18.07893055   19.28380102    4.81371922
      O           8.14935249    5.22773185    4.74999816
      O          20.89529766    8.84483084    7.72570128
      O          10.67657601   20.16937992    4.61207047
      O          13.02358308    4.18300709    5.92886417
      O          20.75627156   15.40157317    4.81494284
      H          16.79375250   12.23447607    4.15432008
      H          18.21437938   12.83509783    3.33085839
      H          14.59694203   12.16004049    6.67516246
      H          19.16336226   17.18885126    4.81922910
      H          12.40995027   13.13939802    3.84764955
      H          12.77130510   12.16993462    2.32047025
      H          12.96909772   10.48175449    2.69596813
      H          15.57724211   20.31652752    4.66463091
      H          13.11798698   20.09771511    4.45922494
      H           9.86242718    9.47898979    3.14891118
      H          10.48167628    9.77698719    6.55209262
      H           9.28087835   10.08660575    5.31306316
      H           8.74356898   15.16856550    2.48388416
      H           5.59822171    9.30515122    3.77514159
      H           7.08024278    7.29595196    4.31225206
      H          10.51590180    4.24335508    5.44914869
      H          15.44907069    4.85117270    6.87892424
      H          21.80026985   11.23398532    7.24767207
      H          21.79456052   13.44322037    6.23166107
      H          17.79188427    5.26692708    7.63303531
      H          19.68363593    6.81084576    7.88708800
      H           8.09184912   19.75049683    4.13116548
      H           6.14187019   18.34965946    3.72771705
      H           5.19486526   15.98018778    3.39796674
      H           4.18416405   13.83105838    3.20259537
      H           4.29280147   11.39329596    3.24895003
      H          12.02550315   14.87304356    1.58624663
      H           8.81901663    9.08739622    1.22001159
      H          16.55469569   13.11760646    7.38790643
      H           9.28727027   15.45244125    5.57734730
      H          18.00298665   20.23268099    5.17442018
      H           8.19665146    4.33595204    5.20283141
      H          21.72206088    9.38339996    7.66310010
      H           9.97326300   20.20738425    5.34650555
      H          13.94391399    3.83112654    5.76636868
      H          21.58064718   14.91365723    4.61108914
      O           0.62368657   26.82228371    6.72791775
      H           0.69639961   27.53307451    7.40966097
      H           1.47211954   26.32577810    6.74919056
      O          21.70922202    4.32991019    2.94679634
      H          20.87553605    4.17344623    2.43195209
      H          22.34002965    3.61795943    2.64685168
      O          22.93954351   20.08538361    5.51753353
      H          22.22246265   19.55286266    5.05038183
      H          22.48784905   20.95200989    5.65983833
      O           6.49260627    8.02523328   -0.19398333
      H           7.43344345    7.83626215    0.09656769
      H           5.89963644    7.39487431    0.33404916
      O          14.24462817   15.20566588    7.34285290
      H          15.00647060   14.69887768    6.97810516
      H          13.43636801   14.68580465    7.14063546
      O           3.75534284   18.42726744    1.83201656
      H           4.30771899   19.22589078    2.17231237
      H           3.38958882   18.05103860    2.68503365
      O           0.95836334    3.51577656    6.10784168
      H           0.95337146    4.50423894    6.19273600
      H           0.37003885    3.38229885    5.30474559
      O           1.17876489   19.97129240    4.17765424
      H           1.19805965   20.00666554    3.19289399
      H           0.21418038   19.87358879    4.38482478
      O          21.11952774   11.94395795    2.82051923
      H          20.21019503   11.81927271    2.40288819
      H          21.01365945   11.77900331    3.77295110
      O          17.55189348   23.12150738    3.59567013
      H          18.34995391   22.98661537    3.01118725
      H          17.61436322   24.07919074    3.83744447
      O           7.64875314   17.34803638    7.18570286
      H           8.59403214   17.09030940    7.10505496
      H           7.53352786   17.84137225    8.05553952
      O          19.04700597   14.51845728    9.88436187
      H          18.65989077   15.35713275   10.24818201
      H          20.00517081   14.53290901   10.16392668
      O          21.13653974   22.32174940    6.04699776
      H          21.29187157   22.06654451    6.99654609
      H          20.23366424   21.95600837    5.84079822
      O          16.89427336    7.75531438    1.53342453
      H          16.11656468    8.06080884    2.04942085
      H          17.10412187    8.51667633    0.92735731
      O          23.57767183   13.27172853   10.17294215
      H          23.80379980   13.57426056    9.25442098
      H          23.23936306   12.32823803   10.10642642
      O          24.17241675   20.41359250    1.94630008
      H          24.63988234   19.97172279    2.70674127
      H          23.56634115   21.10266900    2.33757984
      O           8.50762539   23.05731916    3.71285419
      H           8.49626013   22.14052636    3.34822936
      H           9.27453421   23.05706987    4.34814881
      O          17.95711599    3.63821173    5.40418988
      H          18.90977527    3.35311798    5.42719245
      H          17.99353422    4.54088312    5.04210732
      O          17.01634473   13.04381773    8.85384346
      H          16.26047115   13.45402553    9.32777014
      H          17.79951759   13.62239995    9.04306070
      O          17.33492315   22.99245444    7.76695882
      H          16.45561408   23.27503242    7.40348518
      H          17.78979414   23.85358679    8.02264534
      O          12.54794246   24.07800184    7.17466859
      H          11.98476829   23.57244449    6.54231227
      H          12.40922284   25.02433873    6.89912858
      O           4.77560516    0.26583480    1.22098022
      H           4.82154494    1.16275466    0.81904195
      H           5.47667921    0.25144421    1.94788050
      O          25.70715980    6.13214574    1.63966028
      H          26.60342757    5.68789342    1.72511007
      H          25.17911978    5.50334177    1.11520649
      O           7.75350087    3.03777835    6.23087799
      H           6.99463540    2.67790354    5.69761020
      H           7.32754252    3.58625288    6.94354807
      O          22.10548931    6.94983615    2.28245863
      H          22.11228047    5.98136704    2.53838064
      H          21.62494282    7.38753916    3.02814671
      O          12.76484226    6.32685754    0.79371726
      H          13.06931671    6.89429176    1.53880625
      H          12.38624031    6.96485355    0.13114001
      O          12.98195062   25.93926651    1.23598190
      H          13.85007483   26.21787900    1.63882963
      H          13.20994085   25.45551166    0.42398676
      O           9.09388488   20.84591914    1.92220041
      H           8.27215651   20.90447633    1.35503902
      H           9.65927916   21.57794700    1.58101027
      O          27.61880785    6.24104766    5.77300905
      H          26.71674312    6.30600325    5.35447037
      H          27.80444173    7.02646799    6.33424670
      O           6.10724665    3.85947588    2.00148710
      H           5.54319642    3.33132955    1.38236104
      H           5.92266692    3.48429617    2.90438931
      O           2.52084227   11.98941561    7.57924692
      H           2.22547656   12.85155260    7.17351026
      H           3.34718704   11.77063371    7.11552130
      O           7.18749413   18.42520981    0.00257242
      H           6.93864835   19.38854423    0.11032496
      H           6.42930568   17.85181004    0.28662968
      O           2.33331449   -0.85469629    0.32775584
      H           2.33060385   -1.00964424   -0.63601033
      H           3.24313299   -0.55764046    0.55442229
      O           6.48885215   27.19847243    3.23380984
      H           7.45205300   27.34316210    2.97443526
      H           6.40523290   26.22732102    3.46610208
      O          16.99098925    3.38065381   10.07219227
      H          16.37673649    4.15498403    9.90238363
      H          17.00820009    2.85464786    9.25664382
      O          11.09444865    0.50291800    8.66960017
      H          10.29354010    1.10278865    8.59300875
      H          11.64729051    0.82157925    9.40452614
      O          23.79206793   23.95946579    4.45571977
      H          23.20630773   24.77294489    4.61351705
      H          23.87698108   23.52000919    5.31662888
      O           4.25073767    9.18253825    6.81644587
      H           4.63764109    9.71933680    7.55735193
      H           4.90303570    8.46142756    6.69012032
      O          19.34331211    4.49368707    1.58703576
      H          18.59235867    3.99564112    1.18180725
      H          19.84409544    4.95494171    0.83989799
      O           3.15451599   20.97888838    7.72485704
      H           3.74599541   20.40641604    8.24324609
      H           3.23700687   21.88257499    8.17236839
      O           4.77883364   20.36588640    5.50992939
      H           4.13924685   20.78701587    6.12759604
      H           4.82857071   19.43471299    5.82190591
      O           4.95868553   17.61108947    6.06804700
      H           5.93648670   17.51995844    6.08338031
      H           4.63940382   16.89525835    6.68801616
      O          14.73731584   22.68417146    3.92349591
      H          14.85310880   23.15193636    4.79381193
      H          15.63480790   22.73235090    3.52746551
      O          11.36113392   16.07471907    0.54258793
      H          10.73698594   15.46882418    0.04973810
      H          10.81770200   16.84624910    0.84346557
      O           4.49912053    0.72160207    7.25992982
      H           4.60880071    1.30023751    8.04258304
      H           3.96162435    1.25611987    6.61971610
      O          20.69736632    3.26000202    5.34728211
      H          21.38383562    2.62395916    5.62272468
      H          21.08248197    3.69298654    4.54533870
      O          13.85957359   11.85724671   -0.83070094
      H          14.07274119   11.11431065   -0.21456658
      H          14.04731846   12.69175790   -0.36160093
      O          26.40026670    3.30376135    3.92241525
      H          26.99520035    3.67977540    3.20905393
      H          25.77379317    4.03994392    4.12663943
      O          27.60633494   20.21651261    8.46911878
      H          28.43527013   20.43737088    7.97236395
      H          27.24059146   19.33747905    8.16932822
      O           5.12497163   16.61126874    0.49911724
      H           4.53437653   17.26658551    1.00321126
      H           5.47538794   16.02519269    1.20079473
      O          11.71895055   14.11918460    6.91832285
      H          11.05691125   13.94568975    7.66044675
      H          11.52732589   13.45981106    6.22938208
      O          14.13755946    9.32836674    0.17025959
      H          15.05873566    9.29550326   -0.17195998
      H          14.18216136    8.86990729    1.03203806
      O          22.39160150   19.12292664    0.34348660
      H          23.08829719   19.52423379    0.94311780
      H          22.82925828   22.86914790   -0.33890600
      O          23.44232799   15.89160084    4.11774999
      H          22.94420944   16.46389260    3.47702015
      H          24.41326411   16.09161503    3.93793104
      O           5.04132986   20.43127187    2.84328703
      H           4.94267228   21.32199106    2.42748428
      H           4.85233027   20.52168874    3.81979998
      O           1.27770282   15.40998159    4.07700322
      H           1.39279862   14.97600126    4.96319638
      H           1.85200144   16.21635208    4.14170877
      O           1.34276499   22.66171713    1.31216258
      H           1.59477534   21.70462376    1.37005870
      H           0.39253091   22.60464307    1.03082512
      O           9.05037699    7.62227097    0.48087402
      H           9.80808391    7.76842756   -0.15850669
      H           9.36626063    6.82839257    1.03261321
      O          26.88572831   15.30628772    8.46096506
      H          27.21582223   15.04389618    9.36537341
      H          26.02365081   14.83447230    8.30751531
      O           6.08457741   24.52103379    3.48377538
      H           6.82554172   23.96786010    3.83245646
      H           5.27990592   24.42116137    4.06590651
      O           8.57562370   22.39641276    8.06457850
      H           9.34163142   22.73920359    8.55800019
      H           8.91168343   21.62798901    7.54114726
      O          23.60615928    9.30237876    7.57862758
      H          23.73803789    8.90278319    8.47052259
      H          24.24096908   10.06290665    7.55465326
      O          20.85120949    5.91484267   -0.00579343
      H          21.14375058    6.51305269    0.72004484
      H          21.70831597    5.65689071   -0.43994301
      O          26.31527393   18.10807306    1.51833372
      H          26.20161304   17.98536292    0.54124698
      H          27.11928500   18.66712873    1.60064883
      O          22.61349983   10.78638854    0.78580659
      H          22.12568289   10.95675025    1.62703240
      H          23.18804417   10.00794310    0.93529353
      O          25.47915489   25.72062068    3.12787124
      H          25.53808436   26.46269579    3.80209045
      H          25.15074107   24.93928570    3.63282689
      O          10.06209064   11.92449404    0.57823746
      H           9.43181799   11.20672912    0.93726377
      H          10.57620520   12.21603299    1.35334526
      O          13.43514004   17.32546340   -0.79635084
      H          13.80272125   16.65563874   -1.44248133
      H          12.68754775   16.83224470   -0.36340509
      O          11.25875122   19.22686512    8.16569947
      H          10.79417129   18.90737276    8.98974900
      H          12.08481081   18.69782198    8.09827326
      O           1.74015769   22.89320485    4.04744076
      H           1.54680278   22.91121421    3.07592904
      H           1.67208505   21.94611561    4.29650565
      O           3.22953745    5.65326377    8.13005828
      H           2.72575527    6.49643902    7.96084834
      H           3.63817431    5.40545236    7.26589406
      O          22.21542617   26.06076743    4.61589299
      H          21.45995357   25.79133905    5.21460210
      H          22.57882234   26.95093431    4.92767018
      O          18.01468496   16.92253925    1.32178160
      H          17.03443949   16.96393790    1.14358348
      H          18.08380556   16.94012381    2.29752233
      O          11.50056343   10.58529104    8.23320678
      H          12.36449486   11.06850068    8.27234906
      H          10.95908286   11.05456307    8.91788924
      O          14.28219892    7.81950130    2.70928894
      H          13.86980442    8.26941796    3.47138317
      H          14.71874393    6.98395001    3.09933704
      O          15.53957638    5.60910185    3.39538857
      H          15.50379349    5.29852628    2.45892954
      H          16.49727813    5.79215646    3.54573998
      O          19.45236631   19.01048186    9.61636989
      H          18.95962473   18.29793561   10.08998463
      H          20.39882200   18.92026125    9.84986362
      O          15.10336591   23.99479649    6.36336308
      H          15.22814371   24.94772934    6.14519554
      H          14.15982886   23.95198272    6.72346885
      O          10.27993693   16.38374088    6.59618784
      H          10.76469284   17.10378786    6.15222021
      H          10.94351891   15.64162966    6.70340753
      O          12.48532091   23.75021171    2.86714624
      H          13.37040126   23.35099891    3.12222477
      H          12.67255413   24.62018690    2.42418860
      O          10.18013595   23.38476330    1.48606337
      H           9.57857241   23.44764927    2.27531045
      H          11.09659329   23.39307298    1.88301816
      O          18.38230784    6.27693672    3.35657828
      H          18.01124776    6.96470496    2.74516589
      H          18.74829864    5.59459474    2.71108092
      O          10.10442486    5.58315082    1.74851245
      H          11.04516688    5.58011432    1.45888490
      H           9.72823428    4.68484047    1.58589635
      O          15.29348519   16.74226524    1.03904490
      H          14.63523115   17.08930116    0.34688555
      H          14.93620376   17.02469299    1.90243188
      O          21.80422496   17.14949633    2.29386817
      H          22.07457831   17.69971877    1.51767211
      H          21.58056226   16.23466132    1.97533431
      O          12.35814017   26.69717833    6.34103459
      H          11.95315339   27.14280438    7.12601021
      H          11.63881938   26.65506475    5.64907926
      O          23.22755015    1.46533636    5.10980576
      H          24.16622834    1.23941641    5.33047399
      H          23.30113607    1.78902708    4.17345154
      O           6.97254875   21.09467543    9.76167626
      H           6.33190852   21.73295737   10.18146942
      H           7.48489097   21.62591965    9.07872064
      O          -1.53028948   11.51224335    7.63456577
      H          -1.18620757   11.74237191    8.56538473
      H          -0.72699781   11.33151149    7.11720250
      O          21.43779604   14.49814211    1.59572984
      H          21.23608452   13.77812286    2.24109960
      H          22.29289227   14.14177659    1.18811309
      O          18.27825994   25.71998152    4.06635879
      H          18.68252363   25.87029709    3.15152857
      H          17.80973377   26.52996357    4.32831881
      O           7.15439700   -0.32688334   -0.59149812
      H           6.34338472   -0.30976561   -0.04458914
      H           7.82739530   -0.86678476   -0.10787937
      O           3.21302305    2.11886358    5.30181309
      H           2.91504230    1.43119484    4.64347658
      H           2.43092466    2.68186539    5.55801014
      O           6.35459438    7.02399774    6.99428793
      H           6.43163943    7.48109107    7.93183414
      H           7.15208188    7.27432575    6.48801567
      O           5.98757548   13.18150038    0.25068494
      H           5.93345877   12.24972314   -0.12364649
      H           6.27562556   13.05056772    1.17214642
      O          15.34575697    2.72699695    5.25975094
      H          16.30351196    2.96916375    5.37293239
      H          15.26788926    1.75773717    5.46236408
      O          15.43380582    5.51925367    0.58739368
      H          15.94164150    6.36535595    0.64210715
      H          14.47674240    5.75580822    0.44985589
      O          22.94721885   16.02203878    6.62929393
      H          23.15516488   16.06954559    5.61750675
      H          21.97323476   15.97217262    6.65840437
      O          25.26919527    5.87774061    4.41930256
      H          25.26967390    6.12907567    3.46290640
      H          24.44984354    6.25917753    4.83060987
      O           9.83922237   18.43581554    0.77951663
      H           9.75790177   19.24922682    1.34964310
      H           8.89072561   18.26222289    0.54903173
      O          10.97940097   22.98641246    5.00240364
      H          11.14331192   22.03343512    4.83551243
      H          11.50945472   23.43753298    4.28437340
      O           9.46473443   -1.17161668   10.11862184
      H          10.15683245   -0.77027596    9.53292823
      H           9.80807672   -2.06874279   10.39954309
      O          26.25745478   17.95040796    8.29215610
      H          26.48738969   16.98358039    8.22518417
      H          25.34121804   18.09828748    7.93023384
      O          27.45248413    2.07398080    8.34645526
      H          27.34529546    2.65151526    7.54305240
      H          26.59712595    1.99193648    8.84436587
      O           9.04484689    0.63385366    2.56297237
      H           9.06859194    1.55286207    2.18491123
      H           9.25622647   -0.00750569    1.81824367
      O           6.68338564    4.54152962   -1.28265524
      H           7.33426507    4.66973118   -0.56876560
      H           6.56879634    5.43933499   -1.69939132
      O          21.76171790   26.88096792    2.04631940
      H          21.87705224   26.53523417    2.97673346
      H          22.52150507   26.47038341    1.53274813
      O          23.90767691    8.10130148    0.65198801
      H          23.23892299    7.71557091    1.29434792
      H          24.76699195    7.75010773    0.97708259
      O           4.62569861    5.30642534    5.66705608
      H           5.29567216    5.96030543    5.98231312
      H           5.14521558    4.55239615    5.33266087
      O           5.20452704   22.78416220    1.42699835
      H           4.56402788   23.13895802    0.75293946
      H           5.49354135   23.51922546    2.02439830
      O           2.29565616    3.58973878    9.53730468
      H           2.41886397    4.36244960    8.91753706
      H           1.62117109    2.97228539    9.11254544
      O           8.71237988    1.75447986    8.49859859
      H           8.04628481    1.00274792    8.65316482
      H           8.48733579    2.10424655    7.59949662
      O           3.11408897   12.92296422    0.58670646
      H           2.92228924   12.51939978   -0.30228754
      H           4.06036364   13.17683818    0.53939994
      O          25.45993459   28.43899168    0.69578167
      H          24.96863288   27.61711373    0.44834057
      H          26.20941961   28.08087443    1.24480796
      O           1.75217400   14.47111566    6.68650927
      H           1.01849728   14.75556058    7.30723068
      H           2.54183837   14.95553374    7.03987441
      O          24.51578515   14.11825549    7.78638720
      H          23.91631383   14.69241562    7.23692841
      H          24.72582448   13.26234287    7.34391238
      O          25.39715205   19.45872380    4.27129900
      H          25.49250688   18.47100640    4.27761671
      H          24.61720334   19.69086609    4.83309518
      O           5.71003592   13.49710612    6.51031778
      H           5.68121900   13.76074181    5.56882529
      H           6.49001203   13.99003869    6.90347885
      O          18.92512162   11.89790062    1.39654705
      H          18.88653539   12.81953777    1.03932350
      H          17.99514601   11.69433236    1.62802835
      O          19.79283594   23.00735873    2.07141885
      H          19.52300768   22.44678051    1.28773494
      H          20.72680108   22.75671430    2.31505968
      O          15.20039922   26.65208510    2.65326637
      H          16.04157263   26.24410205    2.38790360
      H          15.30580196   27.66389276    2.52762873
      O           7.19330705   11.13116627    6.53722231
      H           6.68703179   11.97054732    6.38571832
      H           6.96476944   10.58139294    5.76286499
      O          14.96097925   26.88397841    5.47212993
      H          14.94394914   26.70316632    4.50030190
      H          14.00567956   26.88340512    5.75558101
      O           1.54652806   19.87909021    1.38983535
      H           2.38198383   19.32550681    1.40006374
      H           1.22310951   19.93938029    0.43407024
      O           4.87709565    6.27575363    0.93487541
      H           5.27457566    5.49315122    1.38185326
      H           4.33170879    5.94310751    0.18606933
      O          25.81024555   21.89773155    0.33941478
      H          26.28263912   21.33889626   -0.32288891
      H          25.33361102   21.26406053    0.95015094
      O          10.39751525   26.26982237    4.54153503
      H           9.98777348   26.89498106    3.88986184
      H           9.65098943   25.81885172    4.96732695
      O          25.86548861    0.70710514    4.91417029
      H          26.17545758    1.53685640    4.48148276
      H          26.58765812    0.38561350    5.53478394
      O           5.73970399   10.67083109    8.69403451
      H           6.38212014   10.73856364    7.92171934
      H           6.04381874    9.88335045    9.20701772
      O           3.61935173   24.66383780    4.66934746
      H           3.29321013   25.48089973    4.21126438
      H           2.95986402   23.93918489    4.42280727
      O          19.37950714   25.65582167    1.62728200
      H          19.62330513   24.69130452    1.73847918
      H          20.25068657   26.14961422    1.68364807
      O          23.53189714   23.39457595    9.64858729
      H          22.88278532   18.80336089    9.05302792
      H          24.37622211   22.87409087    9.55646259
      O          20.21388066   24.98859709    6.05817408
      H          19.49438886   25.10222385    5.39238044
      H          20.50481754   24.03605476    6.02142741
      O           3.14093882   25.41671856    7.22875748
      H           3.74968231   26.21660038    7.28756868
      H           3.30803560   25.04287181    6.31180909
      O          23.67071365   18.44199118    7.57813885
      H          23.39648656   19.10770334    6.88267015
      H          23.35557236   17.55926754    7.23006332
      O          23.16521117    6.96958407    5.88114433
      H          22.25040234    7.01495566    5.51892744
      H          23.33721873    7.84733777    6.29560776
      O          16.03446346   11.69606177    1.82020105
      H          15.69425003   12.61365430    1.62608488
      H          15.53588553   11.40502485    2.60588998
      O           8.71533962    3.14867873    1.31924365
      H           7.78459922    3.37840373    1.59029342
      H           8.65977365    2.73903576    0.41115683
      O          15.26316385    2.23830001    2.48693192
      H          15.96227716    2.64581983    1.92662498
      H          15.33830346    2.60140882    3.40610462
      O          22.49631357   22.51761617    2.52433015
      H          22.87954510   22.95396783    1.71356726
      H          22.89805268   23.01353813    3.28958332
      O          23.25692006    2.17680484    2.40504222
      H          24.06884202    2.05716767    1.84940458
      H          22.64489483    1.42804968    2.15780439
      O          24.00542055   26.01424312    0.86401922
      H          23.87134403   25.12612510    0.44487104
      H          24.52798417   25.84738172    1.70000963
      O          20.59211097    7.49301502    4.50748645
      H          20.23631707    8.25587420    4.99673569
      H          19.77998294    7.00511600    4.18376786
      O          25.90600566   16.76903813    3.73985090
      H          26.06343991   17.12317635    2.81201601
      H          26.72045238   16.23776777    3.96066288
      O           3.33609204   23.28919290    9.03124598
      H           3.31088511   24.08518773    8.43073050
      H           2.52483078   23.30755500    9.60767303
      O           4.14043649   15.55777041   -1.89330119
      H           4.66256203   14.75977496   -2.16424321
      H           4.40052296   15.78475578   -0.96209757
      O           9.90868968   14.18703782   -0.71826835
      H           9.81684817   13.32779273   -0.20927361
      H           8.99203106   14.41064845   -1.05363900
      O           9.26533460   20.04888755    6.75147549
      H           8.56280687   19.36803633    6.74106832
      H          10.06044801   19.65604554    7.26416284
      O           7.41207292   14.74982754    8.08025418
      H           6.86161013   14.41376701    8.83703516
      H           7.27918035   15.72030144    7.90938023
      O          26.13608701   12.19980375    0.59322255
      H          25.28945554   12.63444050    0.86203768
      H          26.83660418   12.84168639    0.86837151
      O           0.54120601   27.08541069    2.01673909
      H          -0.02539983   26.34767066    2.35787703
      H           1.08998367   26.70564780    1.26829134
      O           2.79626255   17.72925901    4.25665595
      H           3.55995387   17.74950226    4.88487117
      H           2.23474821   18.53940747    4.42251170
      O          21.60212849   21.68019395    8.66681674
      H          21.88651968   20.78849863    8.98760899
      H          20.63681720   21.73942497    8.93734491
      O           5.70278005    2.53934857    4.42285033
      H           5.95454909    1.63095249    4.08915281
      H           4.75537759    2.44129165    4.73826039
      O           2.49649887    6.08092726    3.78647548
      H           3.31126969    5.78327901    4.24054221
      H           1.84261521    6.21043058    4.52132511
      O          14.92075059   14.01857835    0.97213747
      H          13.99759396   14.00539496    1.36756774
      H          15.14673978   14.99275579    0.98302231
      O           4.76223328    2.71429862    9.39914115
      H           5.29136343    3.35603528    8.87018830
      H           3.80211275    3.05312405    9.44032125
      O          18.59005105   25.26366474    8.38788938
      H          19.33925173   25.30251758    7.75175298
      H          18.93310756   25.46748161    9.28891351
      O          18.43081837   21.70873118    5.65752217
      H          18.02762557   22.13142998    6.47587419
      H          18.08617166   22.27685597    4.89902092
      O          23.39906087    5.74335600    8.48791125
      H          23.31144429    5.98032373    7.53486881
      H          23.62105095    6.59645739    8.92159844
      O          11.31297343    7.97425136    8.59969359
      H          11.31473760    7.63103363    7.68493847
      H          11.51501805    8.96726025    8.50724657
      O           1.95467349    8.01352092    7.49538741
      H           1.57470938    8.53978011    8.21783745
      H           2.77305930    8.53048679    7.19931659
      O          16.81907135    9.91473241   -0.06242136
      H          17.41752904   10.30958868   -0.71898961
      H          16.52661893   10.66778980    0.51302901
      O           2.83886274   27.12398488    3.47074246
      H           3.45670744   27.25116907    2.71310835
      H           1.93132864   27.12163751    3.04002842
      O           0.94809875    4.67468632    2.15965432
      H           1.45137054    4.25832036    1.40917955
      H           1.63122751    5.16020843    2.72589028
      O          20.96625852   18.69041986    4.40820640
      H          21.10332622   18.15102444    3.59109428
      H          20.04361188   19.01526272    4.40045140
      O          19.04492333   21.59361963    9.45398689
      H          19.00915063   20.58799768    9.52626033
      H          18.28077130   21.92462611    8.91991722
      O           0.95133118   14.28358920    1.27541989
      H           1.00789922   14.62119000    2.19624248
      H           1.84286612   13.86021595    1.07252196
